data_image0
_chemical_formula_structural       C4
_chemical_formula_sum              "C4"
_cell_length_a       2.4672312604313453
_cell_length_b       2.467231260431345
_cell_length_c       21.000000032249133
_cell_angle_alpha    90.0
_cell_angle_beta     90.0
_cell_angle_gamma    119.99999999999999

_space_group_name_H-M_alt    "P 1"
_space_group_IT_number       1

loop_
  _space_group_symop_operation_xyz
  'x, y, z'

loop_
  _atom_site_type_symbol
  _atom_site_label
  _atom_site_symmetry_multiplicity
  _atom_site_fract_x
  _atom_site_fract_y
  _atom_site_fract_z
  _atom_site_occupancy
  C   C1        1.0  0.0  0.0  0.3571428551658311  1.0000
  C   C2        1.0  0.6666666674727975  0.3333333351204249  0.35714285707059296  1.0000
  C   C3        1.0  0.3333333327803511  0.6666666655607025  0.5245535710992192  1.0000
  C   C4        1.0  0.0  0.0  0.5245535725277906  1.0000
