data_image0
_chemical_formula_structural       Al2Br6Al2Br6
_chemical_formula_sum              "Al4 Br12"
_cell_length_a       6.458451034560576
_cell_length_b       6.458451034560576
_cell_length_c       26.809951586909772
_cell_angle_alpha    90.0
_cell_angle_beta     90.0
_cell_angle_gamma    120.00000000000001

_space_group_name_H-M_alt    "P 1"
_space_group_IT_number       1

loop_
  _space_group_symop_operation_xyz
  'x, y, z'

loop_
  _atom_site_type_symbol
  _atom_site_label
  _atom_site_symmetry_multiplicity
  _atom_site_fract_x
  _atom_site_fract_y
  _atom_site_fract_z
  _atom_site_occupancy
  Al  Al1       1.0  0.6666666669379699  0.3333333330337217  0.3338808572996669  1.0000
  Al  Al2       1.0  0.3333333330337218  0.6666666660674434  0.3338832937083933  1.0000
  Br  Br1       1.0  0.6394122733663533  0.9999996039772916  0.27966289852089293  1.0000
  Br  Br2       1.0  0.36058733039012303  0.3605877263066535  0.27966289852089293  1.0000
  Br  Br3       1.0  3.9623863455816255e-07  0.639412669706276  0.27966289852089293  1.0000
  Br  Br4       1.0  0.3605877259509251  3.969117643665071e-07  0.38810125248716726  1.0000
  Br  Br5       1.0  0.6394126695815687  0.6394122727945116  0.38810125248716726  1.0000
  Br  Br6       1.0  0.9999996037330571  0.36058732939488913  0.38810125248716726  1.0000
  Al  Al3       1.0  0.0  0.0  0.5690218578182225  1.0000
  Al  Al4       1.0  0.6666666669379699  0.3333333330337217  0.5690242942269488  1.0000
  Br  Br7       1.0  0.9727456072706014  0.6666662709435699  0.5148038990394485  1.0000
  Br  Br8       1.0  0.6939206627460123  0.027254393272931783  0.5148038990394485  1.0000
  Br  Br9       1.0  0.33333373014288276  0.30607933667255427  0.5148038990394485  1.0000
  Br  Br10      1.0  0.693921058984647  0.6666670629792077  0.6232422530057228  1.0000
  Br  Br11      1.0  0.972746003485817  0.3060789397607899  0.6232422530057228  1.0000
  Br  Br12      1.0  0.3333329367950873  0.027253996361167415  0.6232422530057228  1.0000
