data_image0
_chemical_formula_structural       CaCl2CaCl2
_chemical_formula_sum              "Ca2 Cl4"
_cell_length_a       4.518513522112874
_cell_length_b       4.518513222185527
_cell_length_c       27.637555680085818
_cell_angle_alpha    90.0
_cell_angle_beta     90.0
_cell_angle_gamma    90.0

_space_group_name_H-M_alt    "P 1"
_space_group_IT_number       1

loop_
  _space_group_symop_operation_xyz
  'x, y, z'

loop_
  _atom_site_type_symbol
  _atom_site_label
  _atom_site_symmetry_multiplicity
  _atom_site_fract_x
  _atom_site_fract_y
  _atom_site_fract_z
  _atom_site_occupancy
  Ca  Ca1       1.0  1.793732174274005e-18  5.389271771833678e-37  0.34249612192805207  1.0000
  Cl  Cl1       1.0  2.5613158520784086e-18  0.49999999975815856  0.3914520171476469  1.0000
  Cl  Cl2       1.0  0.4999999997661981  1.5022509621579618e-19  0.29354024805622064  1.0000
  Ca  Ca2       1.0  0.4999999997661981  0.49999999975815856  0.47572724672875893  1.0000
  Cl  Cl3       1.0  0.4999999997661981  1.5022509621579618e-19  0.4267713515091642  1.0000
  Cl  Cl4       1.0  3.259078256456218e-18  0.49999999975815856  0.5246831209624169  1.0000
