data_image0
_chemical_formula_structural       Bi2F6Bi2F6
_chemical_formula_sum              "Bi4 F12"
_cell_length_a       6.24752022315224
_cell_length_b       6.2475202231522395
_cell_length_c       26.546912949371517
_cell_angle_alpha    90.0
_cell_angle_beta     90.0
_cell_angle_gamma    119.71949510215002

_space_group_name_H-M_alt    "P 1"
_space_group_IT_number       1

loop_
  _space_group_symop_operation_xyz
  'x, y, z'

loop_
  _atom_site_type_symbol
  _atom_site_label
  _atom_site_symmetry_multiplicity
  _atom_site_fract_x
  _atom_site_fract_y
  _atom_site_fract_z
  _atom_site_occupancy
  Bi  Bi1       1.0  0.6671556724044649  0.31481677930027907  0.3335974580882355  1.0000
  Bi  Bi2       1.0  0.33269246654095286  0.6487132585193817  0.3688616713617477  1.0000
  F   F1        1.0  0.3280398292384193  0.3847972705297767  0.3154634256710539  1.0000
  F   F2        1.0  0.07434327973399261  0.6544516395180361  0.3154129606696221  1.0000
  F   F3        1.0  0.596588213441637  0.9057829741183911  0.3154803048464539  1.0000
  F   F4        1.0  0.6721348166430476  0.5787533432872417  0.38701218931157233  1.0000
  F   F5        1.0  0.9257467432255921  0.30912513847476963  0.386994740201731  1.0000
  F   F6        1.0  0.4033086418697492  0.05767020044492766  0.38700242772458504  1.0000
  Bi  Bi3       1.0  0.0010521503272834898  0.9803535733617939  0.5245502520973788  1.0000
  Bi  Bi4       1.0  0.6671556724044648  0.314816779300279  0.4892860388238666  1.0000
  F   F7        1.0  0.9310716590458955  0.31946941519723276  0.5426842848912521  1.0000
  F   F8        1.0  0.6614172889857278  0.5731659647485937  0.5427347495159922  1.0000
  F   F9        1.0  0.41008595537795073  0.0509210318698804  0.5426674053391605  1.0000
  F   F10       1.0  0.7371155864857378  0.975374428972195  0.47113552087404204  1.0000
  F   F11       1.0  0.006743790816361467  0.7217625019882541  0.4711529699838833  1.0000
  F   F12       1.0  0.25819873023741396  0.24420060328534351  0.4711452824610293  1.0000
