data_image0
_chemical_formula_structural       Ga2Br6Ga2Br6
_chemical_formula_sum              "Ga4 Br12"
_cell_length_a       6.559215532245285
_cell_length_b       6.559215532245284
_cell_length_c       26.93826367214797
_cell_angle_alpha    90.0
_cell_angle_beta     90.0
_cell_angle_gamma    120.00000000000001

_space_group_name_H-M_alt    "P 1"
_space_group_IT_number       1

loop_
  _space_group_symop_operation_xyz
  'x, y, z'

loop_
  _atom_site_type_symbol
  _atom_site_label
  _atom_site_symmetry_multiplicity
  _atom_site_fract_x
  _atom_site_fract_y
  _atom_site_fract_z
  _atom_site_occupancy
  Ga  Ga1       1.0  0.6666666675564281  0.3333333339305936  0.33353066550052024  1.0000
  Ga  Ga2       1.0  0.33333333305038126  0.6666666661007624  0.3335355912077453  1.0000
  Br  Br1       1.0  0.6401233691476353  4.154602417283622e-06  0.27843200888091746  1.0000
  Br  Br2       1.0  0.3598807849017444  0.35987663106418266  0.27843200888091746  1.0000
  Br  Br3       1.0  0.9999958446905469  0.6401192143647562  0.27843200888091746  1.0000
  Br  Br4       1.0  0.35987662993460134  0.9999958454289387  0.388634247827348  1.0000
  Br  Br5       1.0  0.6401192141804924  0.6401233689671735  0.388634247827348  1.0000
  Br  Br6       1.0  4.154391689924465e-06  0.3598807856665999  0.388634247827348  1.0000
  Ga  Ga3       1.0  5.186622082181657e-22  2.456884487963582e-41  0.5675618561046216  1.0000
  Ga  Ga4       1.0  0.6666666675564281  0.3333333339305936  0.5675667818118466  1.0000
  Br  Br7       1.0  0.9734567021980166  0.6666708207031797  0.5124631994850188  1.0000
  Br  Br8       1.0  0.6932141185275789  0.026543297133589064  0.5124631994850188  1.0000
  Br  Br9       1.0  0.33332917953890373  0.30678588219458724  0.5124631994850188  1.0000
  Br  Br10      1.0  0.6932099635604357  0.6666625114983452  0.6226654384314493  1.0000
  Br  Br11      1.0  0.9734525486865391  0.30679003679700456  0.6226654384314493  1.0000
  Br  Br12      1.0  0.33333748801752433  0.02654745173600635  0.6226654384314493  1.0000
