data_image0
_chemical_formula_structural       In2I6In2I6
_chemical_formula_sum              "In4 I12"
_cell_length_a       7.472445147846827
_cell_length_b       7.472445147846826
_cell_length_c       27.877247864010556
_cell_angle_alpha    90.0
_cell_angle_beta     90.0
_cell_angle_gamma    120.00000000000001

_space_group_name_H-M_alt    "P 1"
_space_group_IT_number       1

loop_
  _space_group_symop_operation_xyz
  'x, y, z'

loop_
  _atom_site_type_symbol
  _atom_site_label
  _atom_site_symmetry_multiplicity
  _atom_site_fract_x
  _atom_site_fract_y
  _atom_site_fract_z
  _atom_site_occupancy
  In  In1       1.0  0.6666666662337887  0.333333333517679  0.33071098893883655  1.0000
  In  In2       1.0  0.3333333335176791  0.666666667035358  0.3307109713617787  1.0000
  I   I1        1.0  0.645134756214423  0.9999943324731906  0.2690366006209127  1.0000
  I   I2        1.0  0.35485957574367233  0.35486524389271185  0.2690366006209127  1.0000
  I   I3        1.0  5.66782230306313e-06  0.645140423194894  0.2690366006209127  1.0000
  I   I4        1.0  0.35486524487529497  5.6680798466557246e-06  0.3923853596797025  1.0000
  I   I5        1.0  0.6451404232351565  0.6451347551150474  0.3923853596797025  1.0000
  I   I6        1.0  0.9999943311565258  0.35485957581286515  0.3923853596797025  1.0000
  In  In3       1.0  0.0  0.0  0.5793575236976946  1.0000
  In  In4       1.0  0.6666666662337887  0.333333333517679  0.5793575061206366  1.0000
  I   I7        1.0  0.9784680889305325  0.6666609989555115  0.5176831353797707  1.0000
  I   I8        1.0  0.6881929105706709  0.021531911920310825  0.5176831353797707  1.0000
  I   I9        1.0  0.3333390018766627  0.3118070896772149  0.5176831353797707  1.0000
  I   I10       1.0  0.688198578392974  0.6666723351152047  0.6410318944385605  1.0000
  I   I11       1.0  0.978473757289516  0.31180142159736823  0.6410318944385605  1.0000
  I   I12       1.0  0.3333276656953761  0.02152624384046417  0.6410318944385605  1.0000
