data_image0
_chemical_formula_structural       Mo2Cl6Mo2Cl6
_chemical_formula_sum              "Mo4 Cl12"
_cell_length_a       5.589545488082679
_cell_length_b       5.589545488082679
_cell_length_c       27.210230871417288
_cell_angle_alpha    90.0
_cell_angle_beta     90.0
_cell_angle_gamma    120.00000000000001

_space_group_name_H-M_alt    "P 1"
_space_group_IT_number       1

loop_
  _space_group_symop_operation_xyz
  'x, y, z'

loop_
  _atom_site_type_symbol
  _atom_site_label
  _atom_site_symmetry_multiplicity
  _atom_site_fract_x
  _atom_site_fract_y
  _atom_site_fract_z
  _atom_site_occupancy
  Mo  Mo1       1.0  0.6666666663468876  0.33333333413981026  0.33267051436555894  1.0000
  Mo  Mo2       1.0  0.3333333331068994  0.6666666662137987  0.33266753791157805  1.0000
  Cl  Cl1       1.0  0.33315578061346973  0.9999969966485914  0.2755907002566865  1.0000
  Cl  Cl2       1.0  0.6668412158111163  0.6668442194729755  0.2755907002566865  1.0000
  Cl  Cl3       1.0  3.0039290230704482e-06  0.33315878458565096  0.2755907002566865  1.0000
  Cl  Cl4       1.0  0.3331578610291945  1.1589260762110639e-06  0.38974735238795927  1.0000
  Cl  Cl5       1.0  0.666843296536519  0.6668421371245177  0.38974735238795927  1.0000
  Cl  Cl6       1.0  0.9999988394091274  0.3331567022371931  0.38974735238795927  1.0000
  Mo  Mo3       1.0  0.6666666663468876  0.33333333413981026  0.5647909076046561  1.0000
  Mo  Mo4       1.0  0.0  0.0  0.564793884058637  1.0000
  Cl  Cl7       1.0  0.00017755339325178189  0.6666696699188162  0.6218707217135284  1.0000
  Cl  Cl8       1.0  0.66649211674957  0.999822447094432  0.6218707217135284  1.0000
  Cl  Cl9       1.0  0.3333303302107873  0.3335078836939696  0.6218707217135284  1.0000
  Cl  Cl10      1.0  0.00017547207770492835  0.6666655072877224  0.5077140695822557  1.0000
  Cl  Cl11      1.0  0.6664900360241673  0.9998245294428898  0.5077140695822557  1.0000
  Cl  Cl12      1.0  0.3333344922517368  0.3335099639766055  0.5077140695822557  1.0000
